/*--------------------------------*- C++ -*----------------------------------*\
| =========                 |                                                 |
| \\      /  F ield         | OpenFOAM: The Open Source CFD Toolbox           |
|  \\    /   O peration     | Version:  2306                                  |
|   \\  /    A nd           | Website:  www.openfoam.com                      |
|    \\/     M anipulation  |                                                 |
\*---------------------------------------------------------------------------*/
FoamFile
{
    version     2.0;
    format      ascii;
    arch        "LSB;label=32;scalar=64";
    class       volScalarField;
    location    "0/";
    object      p;
}

dimensions [1 -1 -2 0 0 0 0];
internalField uniform 100000;
boundaryField
{
minX
{
	 type calculated;
	 value uniform 100000;
}
maxX
{
	 type calculated;
	 value uniform 100000;
}
minY
{
	 type calculated;
	 value uniform 100000;
}
maxY
{
	 type calculated;
	 value uniform 100000;
}
minZ
{
	 type calculated;
	 value uniform 100000;
}
maxZ
{
	 type calculated;
	 value uniform 100000;
}
IntairBottom
{
	 type calculated;
	 value $internalField;
}
IntairTop
{
	 type calculated;
	 value $internalField;
}
ExtAirBottom
{
	 type calculated;
	 value $internalField;
}
ExtAirTop
{
	 type calculated;
	 value $internalField;
}
Slab
{
	 type calculated;
	 value $internalField;
}
ConcreteTop
{
	 type calculated;
	 value $internalField;
}
Insulation
{
	 type calculated;
	 value $internalField;
}
Brick
{
	 type calculated;
	 value $internalField;
}
ConcreteBottom
{
	 type calculated;
	 value $internalField;
}
Plaster
{
	 type calculated;
	 value $internalField;
}
".*"
{
	 type calculated;
	 value $internalField;
}
}
