/*--------------------------------*- C++ -*----------------------------------*\
| =========                 |                                                 |
| \\      /  F ield         | OpenFOAM: The Open Source CFD Toolbox           |
|  \\    /   O peration     | Version:  4.1                                   |
|   \\  /    A nd           | Web:      www.OpenFOAM.org                      |
|    \\/     M anipulation  |                                                 |
\*---------------------------------------------------------------------------*/
FoamFile
{
    version     2.0;
    format      binary;
    class       volScalarField;
    location    "0/";
    object      T;
}
// * * * * * * * * * * * * * * * * * * * * * * * * * * * * * * * * * * * * * //

dimensions      [ 0 0 0 1 0 0 0 ];

internalField   uniform 274;

boundaryField
{
geom
{
  type zeroGradient;
  value uniform 285.15;
}
air
{
  type zeroGradient;
  value uniform 285.15;
}
minX
{
  type fixedValue;
  value uniform 285.15;
}
maxX
{
  type fixedValue;
  value uniform 285.15;
}
minY
{
  type fixedValue;
  value uniform 285.15;
}
maxY
{
  type fixedValue;
  value uniform 285.15;
}
minZ
{
  type fixedValue;
  value uniform 285.15;
}
maxZ
{
  type fixedValue;
  value uniform 285.15;
}
}
