/*--------------------------------*- C++ -*----------------------------------*\
| =========                 |                                                 |
| \\      /  F ield         | OpenFOAM: The Open Source CFD Toolbox           |
|  \\    /   O peration     | Version:  2306                                  |
|   \\  /    A nd           | Website:  www.openfoam.com                      |
|    \\/     M anipulation  |                                                 |
\*---------------------------------------------------------------------------*/
FoamFile
{
    version     2.0;
    format      ascii;
    arch        "LSB;label=32;scalar=64";
    class       volVectorField;
    location    "0/";
    object      U;
}

dimensions [0 1 -1 0 0 0 0];
internalField uniform (0 0 0.01);
boundaryField
{
minX
{
	 type fixedValue;
	 value uniform ( 0 0 0 );;
}
maxX
{
	 type fixedValue;
	 value uniform ( 0 0 0 );;
}
minY
{
	 type fixedValue;
	 value uniform ( 0 0 0 );;
}
maxY
{
	 type fixedValue;
	 value uniform ( 0 0 0 );;
}
minZ
{
	 type fixedValue;
	 value uniform ( 0 0 0 );;
}
maxZ
{
	 type fixedValue;
	 value uniform ( 0 0 0 );;
}
IntairBottom
{
	 type fixedValue;
	 value uniform ( 0 0 0 );
}
IntairTop
{
	 type fixedValue;
	 value uniform ( 0 0 0 );
}
ExtAirBottom
{
	 type fixedValue;
	 value uniform ( 0 0 0 );
}
ExtAirTop
{
	 type fixedValue;
	 value uniform ( 0 0 0 );
}
Slab
{
	 type fixedValue;
	 value uniform ( 0 0 0 );
}
ConcreteTop
{
	 type fixedValue;
	 value uniform ( 0 0 0 );
}
Insulation
{
	 type fixedValue;
	 value uniform ( 0 0 0 );
}
Brick
{
	 type fixedValue;
	 value uniform ( 0 0 0 );
}
ConcreteBottom
{
	 type fixedValue;
	 value uniform ( 0 0 0 );
}
Plaster
{
	 type fixedValue;
	 value uniform ( 0 0 0 );
}
".*"
{
	 type fixedValue;
	 value uniform ( 0 0 0 );
}
}
